
     RDKit          3D

  6  5  0  0  0  0  0  0  0  0999 V2000
   -1.6483   11.7339    4.6059 C   0  0  0  0  0  0  0  0  0  0  0  0
   -0.4359   12.5219    5.0997 C   0  0  0  0  0  0  0  0  0  0  0  0
   -0.4280   13.8184    4.3365 C   0  0  0  0  0  0  0  0  0  0  0  0
    0.4593   14.8648    4.9540 C   0  0  0  0  0  0  0  0  0  0  0  0
    1.1881   15.5597    3.8255 C   0  0  0  0  0  0  0  0  0  0  0  0
    1.9498   16.7658    4.2763 C   0  0  0  0  0  0  0  0  0  0  0  0
  1  2  1  0
  2  3  1  0
  3  4  1  0
  4  5  1  0
  5  6  1  0
M  END
$$$$
